Version 4
SHEET 1 880 680
WIRE 240 -16 224 -16
WIRE 416 -16 320 -16
WIRE -400 64 -400 48
WIRE -288 64 -288 48
WIRE 416 80 416 64
WIRE 32 96 -176 96
WIRE 224 128 224 -16
WIRE 288 160 256 160
WIRE 304 160 288 160
WIRE -176 176 -256 176
WIRE -176 192 -176 176
WIRE -256 208 -256 176
WIRE 368 208 368 192
WIRE 416 208 368 208
WIRE 512 208 480 208
WIRE 288 256 288 160
WIRE 368 256 368 208
WIRE 32 272 32 224
WIRE 32 272 -176 272
WIRE -176 320 -176 272
WIRE 288 352 288 336
WIRE 368 400 368 336
WIRE -176 416 -176 400
WIRE -176 512 -176 496
FLAG 128 96 9V
FLAG -400 -32 9V
FLAG -288 -32 -9V
FLAG 128 224 -9V
FLAG -400 64 0
FLAG -288 64 0
FLAG -176 512 0
FLAG -256 208 0
FLAG 288 352 0
FLAG 368 400 -9V
FLAG 416 80 0
SYMBOL LM13700 96 80 R0
SYMATTR InstName U1
SYMBOL voltage -400 -48 R0
WINDOW 123 0 0 Left 0
WINDOW 39 0 0 Left 0
SYMATTR InstName V1
SYMATTR Value 9
SYMBOL voltage -288 -48 R0
WINDOW 123 0 0 Left 0
WINDOW 39 0 0 Left 0
SYMATTR InstName V2
SYMATTR Value -9
SYMBOL res -192 80 R0
SYMATTR InstName R2
SYMATTR Value 500
SYMBOL res -192 176 R0
SYMATTR InstName R3
SYMATTR Value 500
SYMBOL res -192 304 R0
SYMATTR InstName R4
SYMATTR Value 30k
SYMBOL voltage -176 400 R0
WINDOW 123 0 0 Left 0
WINDOW 39 0 0 Left 0
SYMATTR InstName V3
SYMATTR Value PULSE(-2 2 0 0 0 0.02 0.04 30)
SYMBOL res 336 -32 R90
WINDOW 0 0 56 VBottom 2
WINDOW 3 32 56 VTop 2
SYMATTR InstName R5
SYMATTR Value 220k
SYMBOL res 304 352 R180
WINDOW 0 36 76 Left 2
WINDOW 3 36 40 Left 2
SYMATTR InstName R6
SYMATTR Value 30k
SYMBOL res 352 240 R0
SYMATTR InstName R7
SYMATTR Value 5k
SYMBOL voltage 416 -32 R0
WINDOW 123 0 0 Left 0
WINDOW 39 0 0 Left 0
SYMATTR InstName V4
SYMATTR Value 9
SYMBOL cap 480 192 R90
WINDOW 0 0 32 VBottom 2
WINDOW 3 32 32 VTop 2
SYMATTR InstName C1
SYMATTR Value 47µF
TEXT -432 536 Left 2 !.tran 0 1 0
TEXT 88 -96 Left 2 !.lib lm13700.sub
