Version 4
SHEET 1 1016 680
WIRE -192 16 -288 16
WIRE -96 16 -192 16
WIRE 144 16 -96 16
WIRE 464 16 144 16
WIRE 752 16 464 16
WIRE 944 16 752 16
WIRE -96 32 -96 16
WIRE 752 64 752 16
WIRE 144 96 144 16
WIRE -288 112 -288 16
WIRE -192 112 -192 16
WIRE 80 112 -16 112
WIRE 464 112 464 16
WIRE -96 128 -96 112
WIRE -16 128 -16 112
WIRE -16 128 -96 128
WIRE -96 144 -96 128
WIRE 256 144 208 144
WIRE 288 144 256 144
WIRE 400 144 400 128
WIRE 400 144 368 144
WIRE 560 160 528 160
WIRE 752 160 560 160
WIRE 144 208 144 192
WIRE -288 256 -288 176
WIRE -192 256 -192 176
WIRE -192 256 -288 256
WIRE -96 256 -96 224
WIRE -96 256 -192 256
WIRE 80 256 80 176
WIRE 256 256 256 208
WIRE 256 256 80 256
WIRE 400 256 400 192
WIRE 400 256 256 256
WIRE 560 256 560 160
WIRE 560 256 400 256
WIRE -96 304 -96 256
WIRE 752 304 -96 304
WIRE -96 320 -96 304
FLAG 944 96 0
FLAG 144 208 0
FLAG 464 208 0
FLAG -96 320 0
FLAG 752 160 VGND
FLAG 752 304 -9V
FLAG 752 64 9V
SYMBOL res -112 16 R0
SYMATTR InstName R1
SYMATTR Value 220k
SYMBOL res -112 128 R0
SYMATTR InstName R2
SYMATTR Value 220k
SYMBOL voltage 944 0 R0
WINDOW 123 0 0 Left 0
WINDOW 39 0 0 Left 0
SYMATTR InstName V1
SYMATTR Value 18V
SYMBOL cap -208 112 R0
SYMATTR InstName C1
SYMATTR Value 10µ
SYMBOL cap -304 112 R0
SYMATTR InstName C2
SYMATTR Value 100µ
SYMBOL res 384 128 R90
WINDOW 0 0 56 VBottom 2
WINDOW 3 32 56 VTop 2
SYMATTR InstName R3
SYMATTR Value 180
SYMBOL cap 240 144 R0
SYMATTR InstName C3
SYMATTR Value 10p
SYMBOL Opamps\\uA741 144 144 R0
SYMATTR InstName U1
SYMBOL Opamps\\uA741 464 160 R0
SYMATTR InstName U2
TEXT 376 400 Left 2 !.tran 0 1 0
