Version 4
SHEET 1 880 680
WIRE 336 128 -16 128
WIRE 528 160 464 160
WIRE 576 160 528 160
WIRE 336 192 304 192
WIRE 304 304 304 192
WIRE 384 304 304 304
WIRE 528 304 528 160
WIRE 528 304 464 304
FLAG -352 208 0
FLAG -16 208 0
FLAG -256 208 0
FLAG -352 128 9V
FLAG -256 128 -9V
FLAG 400 112 9V
FLAG 400 208 -9V
FLAG 304 384 9V
SYMBOL voltage -16 112 R0
WINDOW 123 0 0 Left 0
WINDOW 39 0 0 Left 0
SYMATTR InstName V1
SYMATTR Value 0.3
SYMBOL Opamps\\uA741 400 160 R0
SYMATTR InstName U1
SYMBOL voltage -352 112 R0
WINDOW 123 0 0 Left 0
WINDOW 39 0 0 Left 0
SYMATTR InstName V2
SYMATTR Value 9V
SYMBOL voltage -256 112 R0
WINDOW 123 0 0 Left 0
WINDOW 39 0 0 Left 0
SYMATTR InstName V3
SYMATTR Value -9
SYMBOL res 480 288 R90
WINDOW 0 0 56 VBottom 2
WINDOW 3 32 56 VTop 2
SYMATTR InstName R1
SYMATTR Value 20k
SYMBOL res 320 400 R180
WINDOW 0 36 76 Left 2
WINDOW 3 36 40 Left 2
SYMATTR InstName R2
SYMATTR Value 10k
TEXT 352 400 Left 2 !.tran 0 1 0
